module/powerflow/autotest/test_center_tapped_complex.glm
// tests functionality of the center-tapped transformer and triplex meter in the setup
// Example 11.2 from Kersting's book using FBS
// Setup: a single three-phase node at 7200V is stepped
// down by a center-tapped transformer to 240/120 and fed
// through a triplex secondary to the load node

// requires center_tapped_complex_energy.player to run
// validates measured voltage, current, power, and real_energy at the meter
// validates voltages at the load node

// created by: alek332

#set relax_naming_rules=1

clock {
     timezone CST+6CDT;
     starttime '2006-01-01 00:00:00 CST';
	 stoptime '2006-01-01 00:00:01 CST';
}

// set to FBS, but NR results aren't matching up either
module powerflow {
     solver_method FBS;
}
module assert;
module tape;

// source identical to example 11.1
object node {
     name three-phase;
	 bustype SWING;
     phases ABCN;
	 voltage_A 7200+0j;
	 voltage_B 0;
	 voltage_C 0;
     nominal_voltage 7200;
}

// transformer identical to example 11.1/11.2
object transformer_configuration {
     name default_transformer;
     connect_type SINGLE_PHASE_CENTER_TAPPED;
     install_type PADMOUNT;
     primary_voltage 7200 V;
     secondary_voltage 120 V;
     power_rating 50.0;
	 powerA_rating 50.0;
	 resistance 0.011;
	 reactance 0.018;
}


object transformer {
     name center_tap_transformer_A;
     phases AS;
     from three-phase;
     to trip_node;
     configuration default_transformer;
}

// zero-impedance node to link up the transformer with the 100 ft
// triplex secondary line
// recorders used for reference
object triplex_node {
	name trip_node;
     phases AS;
     nominal_voltage 120.00;
}


// triplex secondary from transformer node to load; the numbers for the line
// match the parameters in the text
object triplex_line_conductor {
      name one-zero AA triplex;
      resistance 0.97;
      geometric_mean_radius 0.0111;
}

object triplex_line_configuration {
      name TLCFG;
      conductor_1 one-zero AA triplex;
      conductor_2 one-zero AA triplex;
      conductor_N one-zero AA triplex;
      insulation_thickness 0.08;
      diameter 0.368;
}


object triplex_line {
	from trip_node;
	to load_node;
	phases AS;
	length 100;
	configuration TLCFG;
};

// triplex node to act as the load on the circuit (identical to 
// the load used in test_triplex_basic/example 11.1 of text
object triplex_meter {
	name load_node;
     phases AS;
     nominal_voltage 120.00;
     object triplex_load {
	     phases AS;
	     nominal_voltage 120.00;
		impedance_1 1.4+0.5j;
		impedance_2  0.9+0.4j;
		impedance_12 2.0+1.2j;
	};
	//triplex_node asserts
	object complex_assert {
		target voltage_1;
		value 115.4-.14d;		
		within 2.5;
	 };
	 object complex_assert {
		target voltage_2;
		value 113.6-.53d;		
		within 2.5;
	 };
	 object complex_assert {
		target voltage_1N;
		value 115.4-.14d;		
		within 2.5;
	 };
	 object complex_assert {
		target voltage_2N;
		value 113.6-.53d;		
		within 2.5;
	 };
	 object complex_assert {
		target voltage_12;
		value 229.1-0.09d;		
		within 2.5;
	 };
	 object complex_assert {
		target voltage_N;
		value 0;		
		within 0.000000000000001;
	 };
	
	// triplex meter asserts
	 object complex_assert {
		target measured_voltage_N;
		value 0;
		within 0.000000000000001;
	 };
	object complex_assert {
		target measured_voltage_1;
		value 115.4-.14d;		
		within 2.5;
	 };
	 object complex_assert {
		target measured_voltage_2;
		value 113.6-.53d;		
		within 2.5;
	 };
	object complex_assert {
		target measured_current_1;
		value 175.0-26.1d;		
		within 2;
	 };
	 object complex_assert {
		target measured_current_2;
		value 213.2+152.7d;		
		within 3;
	 };
	 // >>> power has been calculated using Kersting's volatges and currents
	 // power assert range is arbitrarily high because
	 // of current/voltage calculation inaccuracies>
	 object complex_assert {
		target indiv_measured_power_1;
		value 20195+25.96d;		
		within 251;
	 };
	 object complex_assert {
		target indiv_measured_power_2;
		value 24219.52+27.16d;		
		within 326;
	 };
	 object complex_assert {
		target measured_power;
		value 44412.10472+26.614369d;		
		within 576;
	 };
	 object double_assert { // calculated based measured power
		target "measured_real_energy"; 
		within 9700; // necessarily high because of simulation inaccuracies
		object player {
			property value;
			file ../center_tapped_complex_energy.player;
		};
	 };
	object recorder {
		interval 3600;
		limit 27;
		file "meter_energy.csv"; // <- recorder with the results below
		property measured_real_energy;
	 };
}